Version 4
SHEET 1 1172 680
WIRE 320 -32 320 -96
WIRE 368 -32 320 -32
WIRE 496 -32 448 -32
WIRE 496 16 496 -32
WIRE -144 64 -176 64
WIRE -176 144 -176 64
WIRE -16 144 -176 144
WIRE 80 144 -16 144
WIRE 144 144 80 144
WIRE 304 144 272 144
WIRE 320 144 320 -32
WIRE 320 144 304 144
WIRE 496 144 320 144
WIRE 576 144 496 144
WIRE 880 144 832 144
WIRE 992 144 880 144
WIRE 1056 144 992 144
WIRE -176 160 -176 144
WIRE -16 176 -16 144
WIRE 80 176 80 144
WIRE 304 176 304 144
WIRE 496 176 496 144
WIRE 880 176 880 144
WIRE 992 176 992 144
WIRE -176 272 -176 240
WIRE -16 272 -16 240
WIRE 80 272 80 240
WIRE 208 272 208 192
WIRE 304 272 304 240
WIRE 496 272 496 240
WIRE 880 272 880 240
WIRE 992 272 992 256
WIRE 704 304 704 240
FLAG -176 272 0
FLAG 208 272 0
FLAG 704 304 0
FLAG 1056 144 3.3V
IOPIN 1056 144 Out
FLAG 320 -96 5V
IOPIN 320 -96 Out
FLAG 80 272 0
FLAG 304 272 0
FLAG -16 272 0
FLAG 880 272 0
FLAG 496 272 0
FLAG 992 272 0
FLAG 496 16 0
FLAG -144 64 9VOUT
IOPIN -144 64 Out
SYMBOL Robertugo\\reg3all 272 160 R0
SYMATTR InstName U1
SYMATTR SpiceModel 78L05
SYMBOL voltage -176 144 R0
WINDOW 123 0 0 Left 2
WINDOW 39 24 124 Left 2
SYMATTR InstName V1
SYMATTR Value 9
SYMATTR SpiceLine Rser={Rser}
SYMBOL PowerProducts\\LT1086-3.3 704 144 R0
SYMATTR InstName U2
SYMBOL cap 64 176 R0
SYMATTR InstName C1
SYMATTR Value 0.1uF
SYMBOL cap 288 176 R0
SYMATTR InstName C2
SYMATTR Value 0.1uF
SYMBOL polcap -32 176 R0
SYMATTR InstName C3
SYMATTR Value 100uF
SYMBOL cap 864 176 R0
SYMATTR InstName C4
SYMATTR Value 0.1uF
SYMBOL cap 480 176 R0
SYMATTR InstName C6
SYMATTR Value 0.1uF
SYMBOL res 976 160 R0
SYMATTR InstName R1
SYMATTR Value 3.3k
SYMBOL res 464 -48 R90
WINDOW 0 0 56 VBottom 2
WINDOW 3 32 56 VTop 2
SYMATTR InstName R2
SYMATTR Value 50
TEXT -178 -128 Left 2 !.tran 1m
TEXT -176 -96 Left 2 !.step param Rser list 10 20 30 50
